62
Li    0.000000    0.000000    1.538750
Li    0.000000    3.916000    1.538750
Li    3.916000    0.000000    1.538750
Li    3.916000    3.916000    1.538750
Li    0.000000    0.000000    4.616250
Li    0.000000    3.916000    4.616250
Li    3.916000    0.000000    4.616250
Li    3.916000    3.916000    4.616250
 S    0.000000    1.958000    0.000000
 S    0.000000    1.958000    6.155000
 S    3.916000    1.958000    0.000000
 S    3.916000    1.958000    6.155000
 S    1.958000    0.000000    3.077500
 S    1.958000    3.916000    3.077500
 H    1.253120    1.958000    0.000000
 H    1.253120    1.958000    6.155000
 H    2.662880    1.958000    0.000000
 H    2.662880    1.958000    6.155000
 H    1.958000    1.253120    3.077500
 H    1.958000    2.662880    3.077500
 S   -1.958000    0.000000    3.077500
 S   -0.000000   -1.958000    0.000000
 S   -1.958000    3.916000    3.077500
 S    0.000000    5.874000    0.000000
 S    3.916000   -1.958000    0.000000
 S    5.874000    0.000000    3.077500
 S    3.916000    5.874000    0.000000
 S    5.874000    3.916000    3.077500
 S    0.000000   -1.958000    6.155000
 S    0.000000    5.874000    6.155000
 S    3.916000   -1.958000    6.155000
 S    3.916000    5.874000    6.155000
 H   -1.253120    1.958000    0.000000
 H   -1.253120    1.958000    6.155000
 H    5.169120    1.958000    0.000000
 H    5.169120    1.958000    6.155000
 H    1.958000   -1.253120    3.077500
 H    1.958000    5.169120    3.077500
 H   -1.958000   -1.253120    3.077500
 H   -1.958000    1.253120    3.077500
 H   -1.253120   -1.958000    0.000000
 H    1.253120   -1.958000    0.000000
 H   -1.958000    2.662880    3.077500
 H   -1.958000    5.169120    3.077500
 H   -1.253120    5.874000    0.000000
 H    1.253120    5.874000    0.000000
 H    2.662880   -1.958000    0.000000
 H    5.169120   -1.958000    0.000000
 H    5.874000   -1.253120    3.077500
 H    5.874000    1.253120    3.077500
 H    2.662880    5.874000    0.000000
 H    5.169120    5.874000    0.000000
 H    5.874000    2.662880    3.077500
 H    5.874000    5.169120    3.077500
 H   -1.253120   -1.958000    6.155000
 H    1.253120   -1.958000    6.155000
 H   -1.253120    5.874000    6.155000
 H    1.253120    5.874000    6.155000
 H    2.662880   -1.958000    6.155000
 H    5.169120   -1.958000    6.155000
 H    2.662880    5.874000    6.155000
 H    5.169120    5.874000    6.155000
