22
 H    1.449250    1.449250    1.449250
 H    4.347750    4.347750    4.347750
 H    4.347750    4.347750    1.449250
 H    1.449250    1.449250    4.347750
 H    4.347750    1.449250    4.347750
 H    1.449250    4.347750    1.449250
 H    1.449250    4.347750    4.347750
 H    4.347750    1.449250    1.449250
 S    0.000000    0.000000    0.000000
 S    0.000000    0.000000    5.797000
 S    0.000000    5.797000    0.000000
 S    0.000000    5.797000    5.797000
 S    5.797000    0.000000    0.000000
 S    5.797000    0.000000    5.797000
 S    5.797000    5.797000    0.000000
 S    5.797000    5.797000    5.797000
 S    0.000000    2.898500    2.898500
 S    5.797000    2.898500    2.898500
 S    2.898500    0.000000    2.898500
 S    2.898500    5.797000    2.898500
 S    2.898500    2.898500    0.000000
 S    2.898500    2.898500    5.797000
