22
Co    0.000000    1.618890    1.031274
Co    1.402000    0.809445    5.801274
Li    0.000000    1.618890    3.502134
Li    1.402000    0.809445    8.272134
 O    0.000000    1.618890    6.835410
 O    1.402000    0.809445    2.065410
 O    0.000000    0.000000    0.000000
 O    0.000000    0.000000    9.540000
 O   -1.402000    2.428335    0.000000
 O   -1.402000    2.428335    9.540000
 O    2.804000    0.000000    0.000000
 O    2.804000    0.000000    9.540000
 O    1.402000    2.428335    0.000000
 O    1.402000    2.428335    9.540000
 O    0.000000    0.000000    4.770000
 O   -1.402000    2.428335    4.770000
 O    2.804000    0.000000    4.770000
 O    1.402000    2.428335    4.770000
 O   -1.402000    0.809445    2.065410
 O    0.000000    3.237780    2.065410
 O    1.402000   -0.809445    6.835410
 O    2.804000    1.618890    6.835410
