10
Sn    0.949000    0.949000    1.134650
Sn    2.847000    2.847000    3.681350
 O    2.847000    0.949000    0.000000
 O    2.847000    0.949000    4.816000
 O    0.949000    2.847000    0.000000
 O    0.949000    2.847000    4.816000
 O   -0.949000    0.949000    0.000000
 O    0.949000   -0.949000    0.000000
 O    2.847000    4.745000    4.816000
 O    4.745000    2.847000    4.816000
